 12

 C              0.000000    1.396449    0.000000
 C              1.209361    0.698225    0.000000
 C              1.209361   -0.698225    0.000000
 C              0.000000   -1.396449    0.000000
 C             -1.209361   -0.698225    0.000000
 C             -1.209361    0.698225    0.000000
 H              0.000000    2.483544    0.000000
 H              2.150813    1.241772    0.000000
 H              2.150813   -1.241772    0.000000
 H              0.000000   -2.483544    0.000000
 H             -2.150813   -1.241772    0.000000
 H             -2.150813    1.241772    0.000000

