17

Si              0.000000    0.000000    0.000000
 C              1.094781    1.094781    1.094781
 H              1.742534    1.742534    0.491075
 H              0.491075    1.742534    1.742534
 H              1.742534    0.491075    1.742534
 C             -1.094781   -1.094781    1.094781
 H             -1.742534   -0.491075    1.742534
 H             -1.742534   -1.742534    0.491075
 H             -0.491075   -1.742534    1.742534
 C             -1.094781    1.094781   -1.094781
 H             -0.491075    1.742534   -1.742534
 H             -1.742534    0.491075   -1.742534
 H             -1.742534    1.742534   -0.491075
 C              1.094781   -1.094781   -1.094781
 H              1.742534   -1.742534   -0.491075
 H              0.491075   -1.742534   -1.742534
 H              1.742534   -0.491075   -1.742534
